/*--------------------------------*- C++ -*----------------------------------*\
  =========                 |
  \\      /  F ield         | OpenFOAM: The Open Source CFD Toolbox
   \\    /   O peration     | Website:  https://openfoam.org
    \\  /    A nd           | Version:  13
     \\/     M anipulation  |
\*---------------------------------------------------------------------------*/
FoamFile
{
    format      ascii;
    class       volScalarField;
    location    "0";
    object      O2;
}
// * * * * * * * * * * * * * * * * * * * * * * * * * * * * * * * * * * * * * //

dimensions      [];

internalField   uniform 0.45;

boundaryField
{
    #includeEtc "caseDicts/setConstraintTypes"

    left
    {
        type            zeroGradient;
    }

    right
    {
        type            waveTransmissive;
        gamma           1.4;
        fieldInf        0.45;
        lInf            1e3;

        // type            zeroGradient;
    }

    empty
    {
        type            empty;
    }
}


// ************************************************************************* //
