/*--------------------------------*- C++ -*----------------------------------*\
  =========                 |
  \\      /  F ield         | OpenFOAM: The Open Source CFD Toolbox
   \\    /   O peration     | Website:  https://openfoam.org
    \\  /    A nd           | Version:  13
     \\/     M anipulation  |
\*---------------------------------------------------------------------------*/
FoamFile
{
    format      ascii;
    class       polyBoundaryMesh;
    location    "constant/polyMesh";
    object      boundary;
}
// * * * * * * * * * * * * * * * * * * * * * * * * * * * * * * * * * * * * * //

5
(
    left
    {
        type            patch;
        nFaces          200;
        startFace       66301;
    }
    right
    {
        type            patch;
        nFaces          0;
        startFace       66501;
    }
    wallsY
    {
        type            wall;
        inGroups        List<word> 1(wall);
        nFaces          333;
        startFace       66501;
    }
    wallsZ
    {
        type            empty;
        inGroups        List<word> 1(empty);
        nFaces          66668;
        startFace       66834;
    }
    procBoundary0to1
    {
        type            processor;
        inGroups        List<word> 1(processor);
        nFaces          201;
        startFace       133502;
        matchTolerance  0.0001;
        myProcNo        0;
        neighbProcNo    1;
    }
)

// ************************************************************************* //
